3ztx_ligand
 OpenBabel09052318393D

 32 36  0  0  0  0  0  0  0  0999 V2000
   12.3520    3.0060    5.9460 N   0  0  0  0  0  0  0  0  0  0  0  0
   12.0970    1.8520    5.2710 C   0  0  0  0  0  0  0  0  0  0  0  0
   10.8650    1.5830    4.7750 N   0  0  0  0  0  0  0  0  0  0  0  0
    9.8630    2.4530    4.9120 C   0  0  0  0  0  0  0  0  0  0  0  0
   10.1040    3.6330    5.6180 C   0  0  0  0  0  0  0  0  0  0  0  0
   11.3780    3.8900    6.1410 C   0  0  0  0  0  0  0  0  0  0  0  0
    7.1050    5.3120    6.3280 O   0  0  0  0  0  0  0  0  0  0  0  0
    7.8560    4.3480    6.1110 C   0  0  0  0  0  0  0  0  0  0  0  0
    7.2290    2.9410    6.1050 C   0  0  0  0  0  0  0  0  0  0  0  0
    7.6370    1.8960    5.2620 C   0  0  0  0  0  0  0  0  0  0  0  0
    8.6930    1.9960    4.4040 N   0  0  0  0  0  0  0  0  0  0  0  0
    8.6050    1.4480    3.0320 C   0  0  0  0  0  0  0  0  0  0  0  0
    5.9370    0.4450    6.2400 C   0  0  0  0  0  0  0  0  0  0  0  0
    5.5210    1.4870    7.0770 C   0  0  0  0  0  0  0  0  0  0  0  0
    6.1550    2.7560    7.0080 C   0  0  0  0  0  0  0  0  0  0  0  0
    6.9930    0.6340    5.3360 C   0  0  0  0  0  0  0  0  0  0  0  0
   13.0720    0.9500    5.1330 N   0  0  0  0  0  0  0  0  0  0  0  0
   13.2090   -0.0990    4.3330 C   0  0  0  0  0  0  0  0  0  0  0  0
   12.2440   -0.7450    3.5370 C   0  0  0  0  0  0  0  0  0  0  0  0
   12.6230   -1.8420    2.7530 C   0  0  0  0  0  0  0  0  0  0  0  0
   13.9650   -2.2830    2.8040 C   0  0  0  0  0  0  0  0  0  0  0  0
   14.5120   -3.3540    2.0860 N   0  0  0  0  0  0  0  0  0  0  0  0
   14.9700   -4.5990    2.8000 C   0  0  0  0  0  0  0  0  0  0  0  0
   14.6620   -5.8490    1.9520 C   0  0  0  0  0  0  0  0  0  0  0  0
   14.9940   -5.6520    0.4480 C   0  0  0  0  0  0  0  0  0  0  0  0
   14.5210   -6.7770   -0.2940 O   0  0  0  0  0  0  0  0  0  0  0  0
   14.3210   -4.3890   -0.1240 C   0  0  0  0  0  0  0  0  0  0  0  0
   14.7910   -3.1540    0.6410 C   0  0  0  0  0  0  0  0  0  0  0  0
   14.8930   -1.6420    3.5980 C   0  0  0  0  0  0  0  0  0  0  0  0
   14.5050   -0.5600    4.3460 C   0  0  0  0  0  0  0  0  0  0  0  0
    9.1890    4.5860    5.8680 N   0  0  0  0  0  0  0  0  0  0  0  0
    9.6660    5.9870    5.9020 C   0  0  0  0  0  0  0  0  0  0  0  0
  2  1  2  0  0  0  0
  2 17  1  0  0  0  0
  3  2  1  0  0  0  0
  4  3  2  0  0  0  0
  4  5  1  0  0  0  0
  5  6  2  0  0  0  0
  5 31  1  0  0  0  0
  6  1  1  0  0  0  0
  8  7  2  0  0  0  0
  8 31  1  0  0  0  0
  9  8  1  0  0  0  0
  9 15  1  0  0  0  0
 10  9  2  0  0  0  0
 10 11  1  0  0  0  0
 11  4  1  0  0  0  0
 11 12  1  0  0  0  0
 13 14  1  0  0  0  0
 13 16  2  0  0  0  0
 14 15  2  0  0  0  0
 16 10  1  0  0  0  0
 17 18  1  0  0  0  0
 18 19  2  0  0  0  0
 18 30  1  0  0  0  0
 19 20  1  0  0  0  0
 20 21  2  0  0  0  0
 21 22  1  0  0  0  0
 21 29  1  0  0  0  0
 22 23  1  0  0  0  0
 22 28  1  0  0  0  0
 23 24  1  0  0  0  0
 24 25  1  0  0  0  0
 25 26  1  0  0  0  0
 25 27  1  0  0  0  0
 27 28  1  0  0  0  0
 29 30  2  0  0  0  0
 31 32  1  0  0  0  0
M  END
$$$$
